600

Au       1.48492424       0.85732141       0.00000000        6
Au       4.45477272       0.85732141       0.00000000        6
Au       7.42462120       0.85732141       0.00000000        6
Au      10.39446968       0.85732141       0.00000000        6
Au      13.36431816       0.85732141       0.00000000        6
Au      16.33416665       0.85732141       0.00000000        6
Au      19.30401513       0.85732141       0.00000000        6
Au      22.27386361       0.85732141       0.00000000        6
Au      25.24371209       0.85732141       0.00000000        6
Au      28.21356057       0.85732141       0.00000000        6
Au       0.00000000       3.42928564       0.00000000        6
Au       2.96984848       3.42928564       0.00000000        6
Au       5.93969696       3.42928564       0.00000000        6
Au       8.90954544       3.42928564       0.00000000        6
Au      11.87939392       3.42928564       0.00000000        6
Au      14.84924240       3.42928564       0.00000000        6
Au      17.81909089       3.42928564       0.00000000        6
Au      20.78893937       3.42928564       0.00000000        6
Au      23.75878785       3.42928564       0.00000000        6
Au      26.72863633       3.42928564       0.00000000        6
Au       1.48492424       6.00124987       0.00000000        6
Au       4.45477272       6.00124987       0.00000000        6
Au       7.42462120       6.00124987       0.00000000        6
Au      10.39446968       6.00124987       0.00000000        6
Au      13.36431816       6.00124987       0.00000000        6
Au      16.33416665       6.00124987       0.00000000        6
Au      19.30401513       6.00124987       0.00000000        6
Au      22.27386361       6.00124987       0.00000000        6
Au      25.24371209       6.00124987       0.00000000        6
Au      28.21356057       6.00124987       0.00000000        6
Au       0.00000000       8.57321410       0.00000000        6
Au       2.96984848       8.57321410       0.00000000        6
Au       5.93969696       8.57321410       0.00000000        6
Au       8.90954544       8.57321410       0.00000000        6
Au      11.87939392       8.57321410       0.00000000        6
Au      14.84924240       8.57321410       0.00000000        6
Au      17.81909089       8.57321410       0.00000000        6
Au      20.78893937       8.57321410       0.00000000        6
Au      23.75878785       8.57321410       0.00000000        6
Au      26.72863633       8.57321410       0.00000000        6
Au       1.48492424      11.14517833       0.00000000        6
Au       4.45477272      11.14517833       0.00000000        6
Au       7.42462120      11.14517833       0.00000000        6
Au      10.39446968      11.14517833       0.00000000        6
Au      13.36431816      11.14517833       0.00000000        6
Au      16.33416665      11.14517833       0.00000000        6
Au      19.30401513      11.14517833       0.00000000        6
Au      22.27386361      11.14517833       0.00000000        6
Au      25.24371209      11.14517833       0.00000000        6
Au      28.21356057      11.14517833       0.00000000        6
Au       0.00000000      13.71714256       0.00000000        6
Au       2.96984848      13.71714256       0.00000000        6
Au       5.93969696      13.71714256       0.00000000        6
Au       8.90954544      13.71714256       0.00000000        6
Au      11.87939392      13.71714256       0.00000000        6
Au      14.84924240      13.71714256       0.00000000        6
Au      17.81909089      13.71714256       0.00000000        6
Au      20.78893937      13.71714256       0.00000000        6
Au      23.75878785      13.71714256       0.00000000        6
Au      26.72863633      13.71714256       0.00000000        6
Au       1.48492424      16.28910679       0.00000000        6
Au       4.45477272      16.28910679       0.00000000        6
Au       7.42462120      16.28910679       0.00000000        6
Au      10.39446968      16.28910679       0.00000000        6
Au      13.36431816      16.28910679       0.00000000        6
Au      16.33416665      16.28910679       0.00000000        6
Au      19.30401513      16.28910679       0.00000000        6
Au      22.27386361      16.28910679       0.00000000        6
Au      25.24371209      16.28910679       0.00000000        6
Au      28.21356057      16.28910679       0.00000000        6
Au       0.00000000      18.86107102       0.00000000        6
Au       2.96984848      18.86107102       0.00000000        6
Au       5.93969696      18.86107102       0.00000000        6
Au       8.90954544      18.86107102       0.00000000        6
Au      11.87939392      18.86107102       0.00000000        6
Au      14.84924240      18.86107102       0.00000000        6
Au      17.81909089      18.86107102       0.00000000        6
Au      20.78893937      18.86107102       0.00000000        6
Au      23.75878785      18.86107102       0.00000000        6
Au      26.72863633      18.86107102       0.00000000        6
Au       1.48492424      21.43303525       0.00000000        6
Au       4.45477272      21.43303525       0.00000000        6
Au       7.42462120      21.43303525       0.00000000        6
Au      10.39446968      21.43303525       0.00000000        6
Au      13.36431816      21.43303525       0.00000000        6
Au      16.33416665      21.43303525       0.00000000        6
Au      19.30401513      21.43303525       0.00000000        6
Au      22.27386361      21.43303525       0.00000000        6
Au      25.24371209      21.43303525       0.00000000        6
Au      28.21356057      21.43303525       0.00000000        6
Au       0.00000000      24.00499948       0.00000000        6
Au       2.96984848      24.00499948       0.00000000        6
Au       5.93969696      24.00499948       0.00000000        6
Au       8.90954544      24.00499948       0.00000000        6
Au      11.87939392      24.00499948       0.00000000        6
Au      14.84924240      24.00499948       0.00000000        6
Au      17.81909089      24.00499948       0.00000000        6
Au      20.78893937      24.00499948       0.00000000        6
Au      23.75878785      24.00499948       0.00000000        6
Au      26.72863633      24.00499948       0.00000000        6
Au       0.00000000       1.71464282       2.42487113        5
Au       2.96984848       1.71464282       2.42487113        5
Au       5.93969696       1.71464282       2.42487113        5
Au       8.90954544       1.71464282       2.42487113        5
Au      11.87939392       1.71464282       2.42487113        5
Au      14.84924240       1.71464282       2.42487113        5
Au      17.81909089       1.71464282       2.42487113        5
Au      20.78893937       1.71464282       2.42487113        5
Au      23.75878785       1.71464282       2.42487113        5
Au      26.72863633       1.71464282       2.42487113        5
Au       1.48492424       4.28660705       2.42487113        5
Au       4.45477272       4.28660705       2.42487113        5
Au       7.42462120       4.28660705       2.42487113        5
Au      10.39446968       4.28660705       2.42487113        5
Au      13.36431816       4.28660705       2.42487113        5
Au      16.33416665       4.28660705       2.42487113        5
Au      19.30401513       4.28660705       2.42487113        5
Au      22.27386361       4.28660705       2.42487113        5
Au      25.24371209       4.28660705       2.42487113        5
Au      28.21356057       4.28660705       2.42487113        5
Au       0.00000000       6.85857128       2.42487113        5
Au       2.96984848       6.85857128       2.42487113        5
Au       5.93969696       6.85857128       2.42487113        5
Au       8.90954544       6.85857128       2.42487113        5
Au      11.87939392       6.85857128       2.42487113        5
Au      14.84924240       6.85857128       2.42487113        5
Au      17.81909089       6.85857128       2.42487113        5
Au      20.78893937       6.85857128       2.42487113        5
Au      23.75878785       6.85857128       2.42487113        5
Au      26.72863633       6.85857128       2.42487113        5
Au       1.48492424       9.43053551       2.42487113        5
Au       4.45477272       9.43053551       2.42487113        5
Au       7.42462120       9.43053551       2.42487113        5
Au      10.39446968       9.43053551       2.42487113        5
Au      13.36431816       9.43053551       2.42487113        5
Au      16.33416665       9.43053551       2.42487113        5
Au      19.30401513       9.43053551       2.42487113        5
Au      22.27386361       9.43053551       2.42487113        5
Au      25.24371209       9.43053551       2.42487113        5
Au      28.21356057       9.43053551       2.42487113        5
Au       0.00000000      12.00249974       2.42487113        5
Au       2.96984848      12.00249974       2.42487113        5
Au       5.93969696      12.00249974       2.42487113        5
Au       8.90954544      12.00249974       2.42487113        5
Au      11.87939392      12.00249974       2.42487113        5
Au      14.84924240      12.00249974       2.42487113        5
Au      17.81909089      12.00249974       2.42487113        5
Au      20.78893937      12.00249974       2.42487113        5
Au      23.75878785      12.00249974       2.42487113        5
Au      26.72863633      12.00249974       2.42487113        5
Au       1.48492424      14.57446397       2.42487113        5
Au       4.45477272      14.57446397       2.42487113        5
Au       7.42462120      14.57446397       2.42487113        5
Au      10.39446968      14.57446397       2.42487113        5
Au      13.36431816      14.57446397       2.42487113        5
Au      16.33416665      14.57446397       2.42487113        5
Au      19.30401513      14.57446397       2.42487113        5
Au      22.27386361      14.57446397       2.42487113        5
Au      25.24371209      14.57446397       2.42487113        5
Au      28.21356057      14.57446397       2.42487113        5
Au       0.00000000      17.14642820       2.42487113        5
Au       2.96984848      17.14642820       2.42487113        5
Au       5.93969696      17.14642820       2.42487113        5
Au       8.90954544      17.14642820       2.42487113        5
Au      11.87939392      17.14642820       2.42487113        5
Au      14.84924240      17.14642820       2.42487113        5
Au      17.81909089      17.14642820       2.42487113        5
Au      20.78893937      17.14642820       2.42487113        5
Au      23.75878785      17.14642820       2.42487113        5
Au      26.72863633      17.14642820       2.42487113        5
Au       1.48492424      19.71839243       2.42487113        5
Au       4.45477272      19.71839243       2.42487113        5
Au       7.42462120      19.71839243       2.42487113        5
Au      10.39446968      19.71839243       2.42487113        5
Au      13.36431816      19.71839243       2.42487113        5
Au      16.33416665      19.71839243       2.42487113        5
Au      19.30401513      19.71839243       2.42487113        5
Au      22.27386361      19.71839243       2.42487113        5
Au      25.24371209      19.71839243       2.42487113        5
Au      28.21356057      19.71839243       2.42487113        5
Au       0.00000000      22.29035666       2.42487113        5
Au       2.96984848      22.29035666       2.42487113        5
Au       5.93969696      22.29035666       2.42487113        5
Au       8.90954544      22.29035666       2.42487113        5
Au      11.87939392      22.29035666       2.42487113        5
Au      14.84924240      22.29035666       2.42487113        5
Au      17.81909089      22.29035666       2.42487113        5
Au      20.78893937      22.29035666       2.42487113        5
Au      23.75878785      22.29035666       2.42487113        5
Au      26.72863633      22.29035666       2.42487113        5
Au       1.48492424      24.86232089       2.42487113        5
Au       4.45477272      24.86232089       2.42487113        5
Au       7.42462120      24.86232089       2.42487113        5
Au      10.39446968      24.86232089       2.42487113        5
Au      13.36431816      24.86232089       2.42487113        5
Au      16.33416665      24.86232089       2.42487113        5
Au      19.30401513      24.86232089       2.42487113        5
Au      22.27386361      24.86232089       2.42487113        5
Au      25.24371209      24.86232089       2.42487113        5
Au      28.21356057      24.86232089       2.42487113        5
Au       0.00000000       0.00000000       4.84974226        4
Au       2.96984848       0.00000000       4.84974226        4
Au       5.93969696       0.00000000       4.84974226        4
Au       8.90954544       0.00000000       4.84974226        4
Au      11.87939392       0.00000000       4.84974226        4
Au      14.84924240       0.00000000       4.84974226        4
Au      17.81909089       0.00000000       4.84974226        4
Au      20.78893937       0.00000000       4.84974226        4
Au      23.75878785       0.00000000       4.84974226        4
Au      26.72863633       0.00000000       4.84974226        4
Au       1.48492424       2.57196423       4.84974226        4
Au       4.45477272       2.57196423       4.84974226        4
Au       7.42462120       2.57196423       4.84974226        4
Au      10.39446968       2.57196423       4.84974226        4
Au      13.36431816       2.57196423       4.84974226        4
Au      16.33416665       2.57196423       4.84974226        4
Au      19.30401513       2.57196423       4.84974226        4
Au      22.27386361       2.57196423       4.84974226        4
Au      25.24371209       2.57196423       4.84974226        4
Au      28.21356057       2.57196423       4.84974226        4
Au       0.00000000       5.14392846       4.84974226        4
Au       2.96984848       5.14392846       4.84974226        4
Au       5.93969696       5.14392846       4.84974226        4
Au       8.90954544       5.14392846       4.84974226        4
Au      11.87939392       5.14392846       4.84974226        4
Au      14.84924240       5.14392846       4.84974226        4
Au      17.81909089       5.14392846       4.84974226        4
Au      20.78893937       5.14392846       4.84974226        4
Au      23.75878785       5.14392846       4.84974226        4
Au      26.72863633       5.14392846       4.84974226        4
Au       1.48492424       7.71589269       4.84974226        4
Au       4.45477272       7.71589269       4.84974226        4
Au       7.42462120       7.71589269       4.84974226        4
Au      10.39446968       7.71589269       4.84974226        4
Au      13.36431816       7.71589269       4.84974226        4
Au      16.33416665       7.71589269       4.84974226        4
Au      19.30401513       7.71589269       4.84974226        4
Au      22.27386361       7.71589269       4.84974226        4
Au      25.24371209       7.71589269       4.84974226        4
Au      28.21356057       7.71589269       4.84974226        4
Au       0.00000000      10.28785692       4.84974226        4
Au       2.96984848      10.28785692       4.84974226        4
Au       5.93969696      10.28785692       4.84974226        4
Au       8.90954544      10.28785692       4.84974226        4
Au      11.87939392      10.28785692       4.84974226        4
Au      14.84924240      10.28785692       4.84974226        4
Au      17.81909089      10.28785692       4.84974226        4
Au      20.78893937      10.28785692       4.84974226        4
Au      23.75878785      10.28785692       4.84974226        4
Au      26.72863633      10.28785692       4.84974226        4
Au       1.48492424      12.85982115       4.84974226        4
Au       4.45477272      12.85982115       4.84974226        4
Au       7.42462120      12.85982115       4.84974226        4
Au      10.39446968      12.85982115       4.84974226        4
Au      13.36431816      12.85982115       4.84974226        4
Au      16.33416665      12.85982115       4.84974226        4
Au      19.30401513      12.85982115       4.84974226        4
Au      22.27386361      12.85982115       4.84974226        4
Au      25.24371209      12.85982115       4.84974226        4
Au      28.21356057      12.85982115       4.84974226        4
Au       0.00000000      15.43178538       4.84974226        4
Au       2.96984848      15.43178538       4.84974226        4
Au       5.93969696      15.43178538       4.84974226        4
Au       8.90954544      15.43178538       4.84974226        4
Au      11.87939392      15.43178538       4.84974226        4
Au      14.84924240      15.43178538       4.84974226        4
Au      17.81909089      15.43178538       4.84974226        4
Au      20.78893937      15.43178538       4.84974226        4
Au      23.75878785      15.43178538       4.84974226        4
Au      26.72863633      15.43178538       4.84974226        4
Au       1.48492424      18.00374961       4.84974226        4
Au       4.45477272      18.00374961       4.84974226        4
Au       7.42462120      18.00374961       4.84974226        4
Au      10.39446968      18.00374961       4.84974226        4
Au      13.36431816      18.00374961       4.84974226        4
Au      16.33416665      18.00374961       4.84974226        4
Au      19.30401513      18.00374961       4.84974226        4
Au      22.27386361      18.00374961       4.84974226        4
Au      25.24371209      18.00374961       4.84974226        4
Au      28.21356057      18.00374961       4.84974226        4
Au       0.00000000      20.57571384       4.84974226        4
Au       2.96984848      20.57571384       4.84974226        4
Au       5.93969696      20.57571384       4.84974226        4
Au       8.90954544      20.57571384       4.84974226        4
Au      11.87939392      20.57571384       4.84974226        4
Au      14.84924240      20.57571384       4.84974226        4
Au      17.81909089      20.57571384       4.84974226        4
Au      20.78893937      20.57571384       4.84974226        4
Au      23.75878785      20.57571384       4.84974226        4
Au      26.72863633      20.57571384       4.84974226        4
Au       1.48492424      23.14767807       4.84974226        4
Au       4.45477272      23.14767807       4.84974226        4
Au       7.42462120      23.14767807       4.84974226        4
Au      10.39446968      23.14767807       4.84974226        4
Au      13.36431816      23.14767807       4.84974226        4
Au      16.33416665      23.14767807       4.84974226        4
Au      19.30401513      23.14767807       4.84974226        4
Au      22.27386361      23.14767807       4.84974226        4
Au      25.24371209      23.14767807       4.84974226        4
Au      28.21356057      23.14767807       4.84974226        4
Au       1.48492424       0.85732141       7.27461339        3
Au       4.45477272       0.85732141       7.27461339        3
Au       7.42462120       0.85732141       7.27461339        3
Au      10.39446968       0.85732141       7.27461339        3
Au      13.36431816       0.85732141       7.27461339        3
Au      16.33416665       0.85732141       7.27461339        3
Au      19.30401513       0.85732141       7.27461339        3
Au      22.27386361       0.85732141       7.27461339        3
Au      25.24371209       0.85732141       7.27461339        3
Au      28.21356057       0.85732141       7.27461339        3
Au       0.00000000       3.42928564       7.27461339        3
Au       2.96984848       3.42928564       7.27461339        3
Au       5.93969696       3.42928564       7.27461339        3
Au       8.90954544       3.42928564       7.27461339        3
Au      11.87939392       3.42928564       7.27461339        3
Au      14.84924240       3.42928564       7.27461339        3
Au      17.81909089       3.42928564       7.27461339        3
Au      20.78893937       3.42928564       7.27461339        3
Au      23.75878785       3.42928564       7.27461339        3
Au      26.72863633       3.42928564       7.27461339        3
Au       1.48492424       6.00124987       7.27461339        3
Au       4.45477272       6.00124987       7.27461339        3
Au       7.42462120       6.00124987       7.27461339        3
Au      10.39446968       6.00124987       7.27461339        3
Au      13.36431816       6.00124987       7.27461339        3
Au      16.33416665       6.00124987       7.27461339        3
Au      19.30401513       6.00124987       7.27461339        3
Au      22.27386361       6.00124987       7.27461339        3
Au      25.24371209       6.00124987       7.27461339        3
Au      28.21356057       6.00124987       7.27461339        3
Au       0.00000000       8.57321410       7.27461339        3
Au       2.96984848       8.57321410       7.27461339        3
Au       5.93969696       8.57321410       7.27461339        3
Au       8.90954544       8.57321410       7.27461339        3
Au      11.87939392       8.57321410       7.27461339        3
Au      14.84924240       8.57321410       7.27461339        3
Au      17.81909089       8.57321410       7.27461339        3
Au      20.78893937       8.57321410       7.27461339        3
Au      23.75878785       8.57321410       7.27461339        3
Au      26.72863633       8.57321410       7.27461339        3
Au       1.48492424      11.14517833       7.27461339        3
Au       4.45477272      11.14517833       7.27461339        3
Au       7.42462120      11.14517833       7.27461339        3
Au      10.39446968      11.14517833       7.27461339        3
Au      13.36431816      11.14517833       7.27461339        3
Au      16.33416665      11.14517833       7.27461339        3
Au      19.30401513      11.14517833       7.27461339        3
Au      22.27386361      11.14517833       7.27461339        3
Au      25.24371209      11.14517833       7.27461339        3
Au      28.21356057      11.14517833       7.27461339        3
Au       0.00000000      13.71714256       7.27461339        3
Au       2.96984848      13.71714256       7.27461339        3
Au       5.93969696      13.71714256       7.27461339        3
Au       8.90954544      13.71714256       7.27461339        3
Au      11.87939392      13.71714256       7.27461339        3
Au      14.84924240      13.71714256       7.27461339        3
Au      17.81909089      13.71714256       7.27461339        3
Au      20.78893937      13.71714256       7.27461339        3
Au      23.75878785      13.71714256       7.27461339        3
Au      26.72863633      13.71714256       7.27461339        3
Au       1.48492424      16.28910679       7.27461339        3
Au       4.45477272      16.28910679       7.27461339        3
Au       7.42462120      16.28910679       7.27461339        3
Au      10.39446968      16.28910679       7.27461339        3
Au      13.36431816      16.28910679       7.27461339        3
Au      16.33416665      16.28910679       7.27461339        3
Au      19.30401513      16.28910679       7.27461339        3
Au      22.27386361      16.28910679       7.27461339        3
Au      25.24371209      16.28910679       7.27461339        3
Au      28.21356057      16.28910679       7.27461339        3
Au       0.00000000      18.86107102       7.27461339        3
Au       2.96984848      18.86107102       7.27461339        3
Au       5.93969696      18.86107102       7.27461339        3
Au       8.90954544      18.86107102       7.27461339        3
Au      11.87939392      18.86107102       7.27461339        3
Au      14.84924240      18.86107102       7.27461339        3
Au      17.81909089      18.86107102       7.27461339        3
Au      20.78893937      18.86107102       7.27461339        3
Au      23.75878785      18.86107102       7.27461339        3
Au      26.72863633      18.86107102       7.27461339        3
Au       1.48492424      21.43303525       7.27461339        3
Au       4.45477272      21.43303525       7.27461339        3
Au       7.42462120      21.43303525       7.27461339        3
Au      10.39446968      21.43303525       7.27461339        3
Au      13.36431816      21.43303525       7.27461339        3
Au      16.33416665      21.43303525       7.27461339        3
Au      19.30401513      21.43303525       7.27461339        3
Au      22.27386361      21.43303525       7.27461339        3
Au      25.24371209      21.43303525       7.27461339        3
Au      28.21356057      21.43303525       7.27461339        3
Au       0.00000000      24.00499948       7.27461339        3
Au       2.96984848      24.00499948       7.27461339        3
Au       5.93969696      24.00499948       7.27461339        3
Au       8.90954544      24.00499948       7.27461339        3
Au      11.87939392      24.00499948       7.27461339        3
Au      14.84924240      24.00499948       7.27461339        3
Au      17.81909089      24.00499948       7.27461339        3
Au      20.78893937      24.00499948       7.27461339        3
Au      23.75878785      24.00499948       7.27461339        3
Au      26.72863633      24.00499948       7.27461339        3
Au       0.00000000       1.71464282       9.69948452        2
Au       2.96984848       1.71464282       9.69948452        2
Au       5.93969696       1.71464282       9.69948452        2
Au       8.90954544       1.71464282       9.69948452        2
Au      11.87939392       1.71464282       9.69948452        2
Au      14.84924240       1.71464282       9.69948452        2
Au      17.81909089       1.71464282       9.69948452        2
Au      20.78893937       1.71464282       9.69948452        2
Au      23.75878785       1.71464282       9.69948452        2
Au      26.72863633       1.71464282       9.69948452        2
Au       1.48492424       4.28660705       9.69948452        2
Au       4.45477272       4.28660705       9.69948452        2
Au       7.42462120       4.28660705       9.69948452        2
Au      10.39446968       4.28660705       9.69948452        2
Au      13.36431816       4.28660705       9.69948452        2
Au      16.33416665       4.28660705       9.69948452        2
Au      19.30401513       4.28660705       9.69948452        2
Au      22.27386361       4.28660705       9.69948452        2
Au      25.24371209       4.28660705       9.69948452        2
Au      28.21356057       4.28660705       9.69948452        2
Au       0.00000000       6.85857128       9.69948452        2
Au       2.96984848       6.85857128       9.69948452        2
Au       5.93969696       6.85857128       9.69948452        2
Au       8.90954544       6.85857128       9.69948452        2
Au      11.87939392       6.85857128       9.69948452        2
Au      14.84924240       6.85857128       9.69948452        2
Au      17.81909089       6.85857128       9.69948452        2
Au      20.78893937       6.85857128       9.69948452        2
Au      23.75878785       6.85857128       9.69948452        2
Au      26.72863633       6.85857128       9.69948452        2
Au       1.48492424       9.43053551       9.69948452        2
Au       4.45477272       9.43053551       9.69948452        2
Au       7.42462120       9.43053551       9.69948452        2
Au      10.39446968       9.43053551       9.69948452        2
Au      13.36431816       9.43053551       9.69948452        2
Au      16.33416665       9.43053551       9.69948452        2
Au      19.30401513       9.43053551       9.69948452        2
Au      22.27386361       9.43053551       9.69948452        2
Au      25.24371209       9.43053551       9.69948452        2
Au      28.21356057       9.43053551       9.69948452        2
Au       0.00000000      12.00249974       9.69948452        2
Au       2.96984848      12.00249974       9.69948452        2
Au       5.93969696      12.00249974       9.69948452        2
Au       8.90954544      12.00249974       9.69948452        2
Au      11.87939392      12.00249974       9.69948452        2
Au      14.84924240      12.00249974       9.69948452        2
Au      17.81909089      12.00249974       9.69948452        2
Au      20.78893937      12.00249974       9.69948452        2
Au      23.75878785      12.00249974       9.69948452        2
Au      26.72863633      12.00249974       9.69948452        2
Au       1.48492424      14.57446397       9.69948452        2
Au       4.45477272      14.57446397       9.69948452        2
Au       7.42462120      14.57446397       9.69948452        2
Au      10.39446968      14.57446397       9.69948452        2
Au      13.36431816      14.57446397       9.69948452        2
Au      16.33416665      14.57446397       9.69948452        2
Au      19.30401513      14.57446397       9.69948452        2
Au      22.27386361      14.57446397       9.69948452        2
Au      25.24371209      14.57446397       9.69948452        2
Au      28.21356057      14.57446397       9.69948452        2
Au       0.00000000      17.14642820       9.69948452        2
Au       2.96984848      17.14642820       9.69948452        2
Au       5.93969696      17.14642820       9.69948452        2
Au       8.90954544      17.14642820       9.69948452        2
Au      11.87939392      17.14642820       9.69948452        2
Au      14.84924240      17.14642820       9.69948452        2
Au      17.81909089      17.14642820       9.69948452        2
Au      20.78893937      17.14642820       9.69948452        2
Au      23.75878785      17.14642820       9.69948452        2
Au      26.72863633      17.14642820       9.69948452        2
Au       1.48492424      19.71839243       9.69948452        2
Au       4.45477272      19.71839243       9.69948452        2
Au       7.42462120      19.71839243       9.69948452        2
Au      10.39446968      19.71839243       9.69948452        2
Au      13.36431816      19.71839243       9.69948452        2
Au      16.33416665      19.71839243       9.69948452        2
Au      19.30401513      19.71839243       9.69948452        2
Au      22.27386361      19.71839243       9.69948452        2
Au      25.24371209      19.71839243       9.69948452        2
Au      28.21356057      19.71839243       9.69948452        2
Au       0.00000000      22.29035666       9.69948452        2
Au       2.96984848      22.29035666       9.69948452        2
Au       5.93969696      22.29035666       9.69948452        2
Au       8.90954544      22.29035666       9.69948452        2
Au      11.87939392      22.29035666       9.69948452        2
Au      14.84924240      22.29035666       9.69948452        2
Au      17.81909089      22.29035666       9.69948452        2
Au      20.78893937      22.29035666       9.69948452        2
Au      23.75878785      22.29035666       9.69948452        2
Au      26.72863633      22.29035666       9.69948452        2
Au       1.48492424      24.86232089       9.69948452        2
Au       4.45477272      24.86232089       9.69948452        2
Au       7.42462120      24.86232089       9.69948452        2
Au      10.39446968      24.86232089       9.69948452        2
Au      13.36431816      24.86232089       9.69948452        2
Au      16.33416665      24.86232089       9.69948452        2
Au      19.30401513      24.86232089       9.69948452        2
Au      22.27386361      24.86232089       9.69948452        2
Au      25.24371209      24.86232089       9.69948452        2
Au      28.21356057      24.86232089       9.69948452        2
Au       0.00000000       0.00000000      12.12435565        1
Au       2.96984848       0.00000000      12.12435565        1
Au       5.93969696       0.00000000      12.12435565        1
Au       8.90954544       0.00000000      12.12435565        1
Au      11.87939392       0.00000000      12.12435565        1
Au      14.84924240       0.00000000      12.12435565        1
Au      17.81909089       0.00000000      12.12435565        1
Au      20.78893937       0.00000000      12.12435565        1
Au      23.75878785       0.00000000      12.12435565        1
Au      26.72863633       0.00000000      12.12435565        1
Au       1.48492424       2.57196423      12.12435565        1
Au       4.45477272       2.57196423      12.12435565        1
Au       7.42462120       2.57196423      12.12435565        1
Au      10.39446968       2.57196423      12.12435565        1
Au      13.36431816       2.57196423      12.12435565        1
Au      16.33416665       2.57196423      12.12435565        1
Au      19.30401513       2.57196423      12.12435565        1
Au      22.27386361       2.57196423      12.12435565        1
Au      25.24371209       2.57196423      12.12435565        1
Au      28.21356057       2.57196423      12.12435565        1
Au       0.00000000       5.14392846      12.12435565        1
Au       2.96984848       5.14392846      12.12435565        1
Au       5.93969696       5.14392846      12.12435565        1
Au       8.90954544       5.14392846      12.12435565        1
Au      11.87939392       5.14392846      12.12435565        1
Au      14.84924240       5.14392846      12.12435565        1
Au      17.81909089       5.14392846      12.12435565        1
Au      20.78893937       5.14392846      12.12435565        1
Au      23.75878785       5.14392846      12.12435565        1
Au      26.72863633       5.14392846      12.12435565        1
Au       1.48492424       7.71589269      12.12435565        1
Au       4.45477272       7.71589269      12.12435565        1
Au       7.42462120       7.71589269      12.12435565        1
Au      10.39446968       7.71589269      12.12435565        1
Au      13.36431816       7.71589269      12.12435565        1
Au      16.33416665       7.71589269      12.12435565        1
Au      19.30401513       7.71589269      12.12435565        1
Au      22.27386361       7.71589269      12.12435565        1
Au      25.24371209       7.71589269      12.12435565        1
Au      28.21356057       7.71589269      12.12435565        1
Au       0.00000000      10.28785692      12.12435565        1
Au       2.96984848      10.28785692      12.12435565        1
Au       5.93969696      10.28785692      12.12435565        1
Au       8.90954544      10.28785692      12.12435565        1
Au      11.87939392      10.28785692      12.12435565        1
Au      14.84924240      10.28785692      12.12435565        1
Au      17.81909089      10.28785692      12.12435565        1
Au      20.78893937      10.28785692      12.12435565        1
Au      23.75878785      10.28785692      12.12435565        1
Au      26.72863633      10.28785692      12.12435565        1
Au       1.48492424      12.85982115      12.12435565        1
Au       4.45477272      12.85982115      12.12435565        1
Au       7.42462120      12.85982115      12.12435565        1
Au      10.39446968      12.85982115      12.12435565        1
Au      13.36431816      12.85982115      12.12435565        1
Au      16.33416665      12.85982115      12.12435565        1
Au      19.30401513      12.85982115      12.12435565        1
Au      22.27386361      12.85982115      12.12435565        1
Au      25.24371209      12.85982115      12.12435565        1
Au      28.21356057      12.85982115      12.12435565        1
Au       0.00000000      15.43178538      12.12435565        1
Au       2.96984848      15.43178538      12.12435565        1
Au       5.93969696      15.43178538      12.12435565        1
Au       8.90954544      15.43178538      12.12435565        1
Au      11.87939392      15.43178538      12.12435565        1
Au      14.84924240      15.43178538      12.12435565        1
Au      17.81909089      15.43178538      12.12435565        1
Au      20.78893937      15.43178538      12.12435565        1
Au      23.75878785      15.43178538      12.12435565        1
Au      26.72863633      15.43178538      12.12435565        1
Au       1.48492424      18.00374961      12.12435565        1
Au       4.45477272      18.00374961      12.12435565        1
Au       7.42462120      18.00374961      12.12435565        1
Au      10.39446968      18.00374961      12.12435565        1
Au      13.36431816      18.00374961      12.12435565        1
Au      16.33416665      18.00374961      12.12435565        1
Au      19.30401513      18.00374961      12.12435565        1
Au      22.27386361      18.00374961      12.12435565        1
Au      25.24371209      18.00374961      12.12435565        1
Au      28.21356057      18.00374961      12.12435565        1
Au       0.00000000      20.57571384      12.12435565        1
Au       2.96984848      20.57571384      12.12435565        1
Au       5.93969696      20.57571384      12.12435565        1
Au       8.90954544      20.57571384      12.12435565        1
Au      11.87939392      20.57571384      12.12435565        1
Au      14.84924240      20.57571384      12.12435565        1
Au      17.81909089      20.57571384      12.12435565        1
Au      20.78893937      20.57571384      12.12435565        1
Au      23.75878785      20.57571384      12.12435565        1
Au      26.72863633      20.57571384      12.12435565        1
Au       1.48492424      23.14767807      12.12435565        1
Au       4.45477272      23.14767807      12.12435565        1
Au       7.42462120      23.14767807      12.12435565        1
Au      10.39446968      23.14767807      12.12435565        1
Au      13.36431816      23.14767807      12.12435565        1
Au      16.33416665      23.14767807      12.12435565        1
Au      19.30401513      23.14767807      12.12435565        1
Au      22.27386361      23.14767807      12.12435565        1
Au      25.24371209      23.14767807      12.12435565        1
Au      28.21356057      23.14767807      12.12435565        1
